<routes>

<vType id="type0" color="255,105,180" length = "8.0" speedFactor="normc(1,0.1,0.2,2)" lcSpeedGain = "1"/>
<vType id="type1" color="255,190,180" length = "8.0" carFollowModel = "IDM" speedFactor="normc(1,0.1,0.2,2)" lcSpeedGain = "1"/>
<vType id="type2" color="22,255,255" length = "3.5" speedFactor="normc(1,0.1,0.2,2)" lcSpeedGain = "1"/>
<vType id="type3" color="22,55,255" length = "3.5" carFollowModel = "IDM" speedFactor="normc(1,0.1,0.2,2)" lcSpeedGain = "1"/>
<vType id="type4" color="22,55,255" length = "3.5" carFollowModel = "IDM" maxSpeed="70" speedFactor="normc(1,0.1,0.2,2)" lcSpeedGain = "1"/>

<route id="0" edges="m3 m4 m5 m6 m7 m8 m9"/> 
<route id="1" edges="m3 m4 m5 m6 m7 m8 rout1"/> 
<route id="2" edges="rlight1 rin3 m7 m8 m9"/> 
<vehicle id="0" depart="3.21" type="type0" route="0" departLane="random"/>

<vehicle id="1" depart="3.91" type="type4" route="0" departLane="random"/>

<vehicle id="2" depart="4.19" type="type3" route="2" departLane="random"/>

<vehicle id="3" depart="4.92" type="type2" route="0" departLane="random"/>

<vehicle id="4" depart="5.22" type="type4" route="0" departLane="random"/>

<vehicle id="5" depart="5.38" type="type2" route="1" departLane="random"/>

<vehicle id="6" depart="5.46" type="type3" route="0" departLane="random"/>

<vehicle id="7" depart="6.1" type="type3" route="0" departLane="random"/>

<vehicle id="8" depart="6.94" type="type4" route="1" departLane="random"/>

<vehicle id="9" depart="8.33" type="type3" route="0" departLane="random"/>

<vehicle id="10" depart="8.52" type="type2" route="0" departLane="random"/>

<vehicle id="11" depart="9.02" type="type4" route="1" departLane="random"/>

<vehicle id="12" depart="9.48" type="type1" route="2" departLane="random"/>

<vehicle id="13" depart="10.34" type="type4" route="0" departLane="random"/>

<vehicle id="14" depart="10.98" type="type2" route="0" departLane="random"/>

<vehicle id="15" depart="11.64" type="type3" route="0" departLane="random"/>

<vehicle id="16" depart="13.7" type="type3" route="0" departLane="random"/>

<vehicle id="17" depart="13.9" type="type1" route="0" departLane="random"/>

<vehicle id="18" depart="14.62" type="type3" route="0" departLane="random"/>

<vehicle id="19" depart="14.91" type="type2" route="2" departLane="random"/>

<vehicle id="20" depart="15.41" type="type2" route="0" departLane="random"/>

<vehicle id="21" depart="15.61" type="type3" route="0" departLane="random"/>

<vehicle id="22" depart="17.39" type="type2" route="0" departLane="random"/>

<vehicle id="23" depart="18.93" type="type2" route="2" departLane="random"/>

<vehicle id="24" depart="19.39" type="type2" route="0" departLane="random"/>

<vehicle id="25" depart="19.47" type="type1" route="2" departLane="random"/>

<vehicle id="26" depart="20.55" type="type3" route="0" departLane="random"/>

<vehicle id="27" depart="22.27" type="type3" route="0" departLane="random"/>

<vehicle id="28" depart="22.36" type="type3" route="1" departLane="random"/>

<vehicle id="29" depart="22.38" type="type3" route="0" departLane="random"/>

<vehicle id="30" depart="23.81" type="type2" route="1" departLane="random"/>

<vehicle id="31" depart="24.38" type="type4" route="0" departLane="random"/>

<vehicle id="32" depart="25.45" type="type2" route="1" departLane="random"/>

<vehicle id="33" depart="25.6" type="type1" route="0" departLane="random"/>

<vehicle id="34" depart="26.98" type="type1" route="0" departLane="random"/>

<vehicle id="35" depart="27.14" type="type4" route="0" departLane="random"/>

<vehicle id="36" depart="27.92" type="type3" route="1" departLane="random"/>

<vehicle id="37" depart="28.48" type="type3" route="0" departLane="random"/>

<vehicle id="38" depart="30.14" type="type3" route="0" departLane="random"/>

<vehicle id="39" depart="30.22" type="type1" route="0" departLane="random"/>

<vehicle id="40" depart="30.48" type="type2" route="0" departLane="random"/>

<vehicle id="41" depart="32.03" type="type2" route="0" departLane="random"/>

<vehicle id="42" depart="32.4" type="type1" route="1" departLane="random"/>

<vehicle id="43" depart="32.74" type="type4" route="0" departLane="random"/>

<vehicle id="44" depart="32.83" type="type1" route="0" departLane="random"/>

<vehicle id="45" depart="33.58" type="type4" route="0" departLane="random"/>

<vehicle id="46" depart="34.08" type="type3" route="1" departLane="random"/>

<vehicle id="47" depart="34.44" type="type3" route="1" departLane="random"/>

<vehicle id="48" depart="35.0" type="type3" route="0" departLane="random"/>

<vehicle id="49" depart="35.67" type="type3" route="0" departLane="random"/>

<vehicle id="50" depart="36.03" type="type1" route="0" departLane="random"/>

<vehicle id="51" depart="36.04" type="type3" route="1" departLane="random"/>

<vehicle id="52" depart="36.14" type="type2" route="1" departLane="random"/>

<vehicle id="53" depart="36.37" type="type3" route="0" departLane="random"/>

<vehicle id="54" depart="36.43" type="type3" route="1" departLane="random"/>

<vehicle id="55" depart="38.68" type="type0" route="1" departLane="random"/>

<vehicle id="56" depart="41.43" type="type4" route="0" departLane="random"/>

<vehicle id="57" depart="42.15" type="type2" route="1" departLane="random"/>

<vehicle id="58" depart="42.27" type="type3" route="0" departLane="random"/>

<vehicle id="59" depart="42.91" type="type2" route="1" departLane="random"/>

<vehicle id="60" depart="43.18" type="type2" route="0" departLane="random"/>

<vehicle id="61" depart="45.13" type="type0" route="1" departLane="random"/>

<vehicle id="62" depart="45.9" type="type0" route="1" departLane="random"/>

<vehicle id="63" depart="47.74" type="type2" route="0" departLane="random"/>

<vehicle id="64" depart="47.76" type="type2" route="0" departLane="random"/>

<vehicle id="65" depart="47.86" type="type2" route="0" departLane="random"/>

<vehicle id="66" depart="49.2" type="type2" route="1" departLane="random"/>

<vehicle id="67" depart="50.21" type="type2" route="0" departLane="random"/>

<vehicle id="68" depart="51.13" type="type2" route="0" departLane="random"/>

<vehicle id="69" depart="51.66" type="type1" route="0" departLane="random"/>

<vehicle id="70" depart="52.86" type="type3" route="1" departLane="random"/>

<vehicle id="71" depart="54.27" type="type2" route="0" departLane="random"/>

<vehicle id="72" depart="54.97" type="type2" route="0" departLane="random"/>

<vehicle id="73" depart="55.03" type="type1" route="0" departLane="random"/>

<vehicle id="74" depart="55.8" type="type2" route="0" departLane="random"/>

<vehicle id="75" depart="56.29" type="type2" route="0" departLane="random"/>

<vehicle id="76" depart="56.61" type="type3" route="1" departLane="random"/>

<vehicle id="77" depart="58.03" type="type2" route="0" departLane="random"/>

<vehicle id="78" depart="59.33" type="type3" route="0" departLane="random"/>

<vehicle id="79" depart="59.39" type="type0" route="0" departLane="random"/>

<vehicle id="80" depart="62.24" type="type2" route="1" departLane="random"/>

<vehicle id="81" depart="62.63" type="type3" route="0" departLane="random"/>

<vehicle id="82" depart="63.15" type="type2" route="0" departLane="random"/>

<vehicle id="83" depart="63.28" type="type2" route="2" departLane="random"/>

<vehicle id="84" depart="63.44" type="type0" route="0" departLane="random"/>

<vehicle id="85" depart="63.44" type="type0" route="1" departLane="random"/>

<vehicle id="86" depart="65.38" type="type3" route="0" departLane="random"/>

<vehicle id="87" depart="65.84" type="type2" route="0" departLane="random"/>

<vehicle id="88" depart="66.04" type="type3" route="0" departLane="random"/>

<vehicle id="89" depart="68.23" type="type2" route="2" departLane="random"/>

<vehicle id="90" depart="68.33" type="type2" route="0" departLane="random"/>

<vehicle id="91" depart="70.09" type="type4" route="0" departLane="random"/>

<vehicle id="92" depart="71.72" type="type2" route="0" departLane="random"/>

<vehicle id="93" depart="71.8" type="type1" route="0" departLane="random"/>

<vehicle id="94" depart="71.84" type="type2" route="0" departLane="random"/>

<vehicle id="95" depart="71.87" type="type2" route="1" departLane="random"/>

<vehicle id="96" depart="72.16" type="type3" route="0" departLane="random"/>

<vehicle id="97" depart="72.92" type="type3" route="0" departLane="random"/>

<vehicle id="98" depart="73.15" type="type2" route="0" departLane="random"/>

<vehicle id="99" depart="73.99" type="type3" route="1" departLane="random"/>

<vehicle id="100" depart="74.07" type="type0" route="0" departLane="random"/>

<vehicle id="101" depart="74.4" type="type2" route="0" departLane="random"/>

<vehicle id="102" depart="75.02" type="type3" route="0" departLane="random"/>

<vehicle id="103" depart="76.56" type="type2" route="0" departLane="random"/>

<vehicle id="104" depart="76.74" type="type0" route="2" departLane="random"/>

<vehicle id="105" depart="78.31" type="type2" route="0" departLane="random"/>

<vehicle id="106" depart="78.72" type="type2" route="0" departLane="random"/>

<vehicle id="107" depart="79.71" type="type2" route="0" departLane="random"/>

<vehicle id="108" depart="79.73" type="type2" route="0" departLane="random"/>

<vehicle id="109" depart="80.13" type="type3" route="0" departLane="random"/>

<vehicle id="110" depart="80.31" type="type1" route="1" departLane="random"/>

<vehicle id="111" depart="80.56" type="type2" route="0" departLane="random"/>

<vehicle id="112" depart="80.63" type="type3" route="0" departLane="random"/>

<vehicle id="113" depart="80.78" type="type0" route="0" departLane="random"/>

<vehicle id="114" depart="81.4" type="type3" route="0" departLane="random"/>

<vehicle id="115" depart="81.52" type="type3" route="0" departLane="random"/>

<vehicle id="116" depart="83.94" type="type0" route="0" departLane="random"/>

<vehicle id="117" depart="84.49" type="type2" route="0" departLane="random"/>

<vehicle id="118" depart="84.96" type="type3" route="0" departLane="random"/>

<vehicle id="119" depart="85.7" type="type3" route="0" departLane="random"/>

<vehicle id="120" depart="86.3" type="type4" route="0" departLane="random"/>

<vehicle id="121" depart="87.15" type="type3" route="1" departLane="random"/>

<vehicle id="122" depart="87.22" type="type4" route="2" departLane="random"/>

<vehicle id="123" depart="87.44" type="type2" route="0" departLane="random"/>

<vehicle id="124" depart="88.54" type="type2" route="0" departLane="random"/>

<vehicle id="125" depart="88.84" type="type1" route="0" departLane="random"/>

<vehicle id="126" depart="89.02" type="type2" route="0" departLane="random"/>

<vehicle id="127" depart="89.22" type="type2" route="1" departLane="random"/>

<vehicle id="128" depart="89.24" type="type2" route="0" departLane="random"/>

<vehicle id="129" depart="89.74" type="type2" route="0" departLane="random"/>

<vehicle id="130" depart="90.3" type="type2" route="0" departLane="random"/>

<vehicle id="131" depart="91.32" type="type3" route="0" departLane="random"/>

<vehicle id="132" depart="93.06" type="type2" route="1" departLane="random"/>

<vehicle id="133" depart="93.83" type="type2" route="1" departLane="random"/>

<vehicle id="134" depart="93.9" type="type3" route="2" departLane="random"/>

<vehicle id="135" depart="93.93" type="type3" route="2" departLane="random"/>

<vehicle id="136" depart="94.68" type="type3" route="0" departLane="random"/>

<vehicle id="137" depart="95.64" type="type2" route="2" departLane="random"/>

<vehicle id="138" depart="95.84" type="type3" route="1" departLane="random"/>

<vehicle id="139" depart="95.91" type="type2" route="0" departLane="random"/>

<vehicle id="140" depart="96.04" type="type0" route="0" departLane="random"/>

<vehicle id="141" depart="98.05" type="type2" route="1" departLane="random"/>

<vehicle id="142" depart="99.92" type="type3" route="1" departLane="random"/>

<vehicle id="143" depart="100.16" type="type3" route="0" departLane="random"/>

<vehicle id="144" depart="101.17" type="type1" route="0" departLane="random"/>

<vehicle id="145" depart="101.29" type="type3" route="0" departLane="random"/>

<vehicle id="146" depart="102.88" type="type1" route="2" departLane="random"/>

<vehicle id="147" depart="103.34" type="type4" route="0" departLane="random"/>

<vehicle id="148" depart="103.47" type="type3" route="0" departLane="random"/>

<vehicle id="149" depart="103.68" type="type0" route="2" departLane="random"/>

<vehicle id="150" depart="104.64" type="type2" route="1" departLane="random"/>

<vehicle id="151" depart="105.41" type="type3" route="0" departLane="random"/>

<vehicle id="152" depart="107.0" type="type3" route="0" departLane="random"/>

<vehicle id="153" depart="108.66" type="type2" route="2" departLane="random"/>

<vehicle id="154" depart="108.88" type="type2" route="0" departLane="random"/>

<vehicle id="155" depart="109.37" type="type3" route="0" departLane="random"/>

<vehicle id="156" depart="110.29" type="type4" route="0" departLane="random"/>

<vehicle id="157" depart="110.3" type="type2" route="0" departLane="random"/>

<vehicle id="158" depart="110.36" type="type2" route="2" departLane="random"/>

<vehicle id="159" depart="111.12" type="type3" route="1" departLane="random"/>

<vehicle id="160" depart="111.13" type="type2" route="0" departLane="random"/>

<vehicle id="161" depart="111.41" type="type2" route="0" departLane="random"/>

<vehicle id="162" depart="111.45" type="type3" route="0" departLane="random"/>

<vehicle id="163" depart="111.5" type="type4" route="0" departLane="random"/>

<vehicle id="164" depart="112.34" type="type4" route="0" departLane="random"/>

<vehicle id="165" depart="112.74" type="type1" route="0" departLane="random"/>

<vehicle id="166" depart="113.19" type="type2" route="0" departLane="random"/>

<vehicle id="167" depart="114.52" type="type0" route="0" departLane="random"/>

<vehicle id="168" depart="114.56" type="type2" route="0" departLane="random"/>

<vehicle id="169" depart="114.87" type="type0" route="0" departLane="random"/>

<vehicle id="170" depart="115.38" type="type2" route="0" departLane="random"/>

<vehicle id="171" depart="116.2" type="type2" route="1" departLane="random"/>

<vehicle id="172" depart="117.25" type="type2" route="0" departLane="random"/>

<vehicle id="173" depart="117.44" type="type2" route="2" departLane="random"/>

<vehicle id="174" depart="117.53" type="type4" route="1" departLane="random"/>

<vehicle id="175" depart="117.85" type="type3" route="0" departLane="random"/>

<vehicle id="176" depart="118.08" type="type1" route="0" departLane="random"/>

<vehicle id="177" depart="118.33" type="type2" route="2" departLane="random"/>

<vehicle id="178" depart="119.29" type="type3" route="0" departLane="random"/>

<vehicle id="179" depart="119.68" type="type2" route="1" departLane="random"/>

<vehicle id="180" depart="119.79" type="type3" route="0" departLane="random"/>

<vehicle id="181" depart="120.4" type="type3" route="1" departLane="random"/>

<vehicle id="182" depart="120.48" type="type2" route="0" departLane="random"/>

<vehicle id="183" depart="121.5" type="type3" route="0" departLane="random"/>

<vehicle id="184" depart="121.57" type="type1" route="0" departLane="random"/>

<vehicle id="185" depart="121.97" type="type2" route="0" departLane="random"/>

<vehicle id="186" depart="122.99" type="type2" route="2" departLane="random"/>

<vehicle id="187" depart="124.71" type="type1" route="0" departLane="random"/>

<vehicle id="188" depart="125.03" type="type3" route="1" departLane="random"/>

<vehicle id="189" depart="125.24" type="type2" route="0" departLane="random"/>

<vehicle id="190" depart="126.63" type="type3" route="0" departLane="random"/>

<vehicle id="191" depart="127.1" type="type2" route="0" departLane="random"/>

<vehicle id="192" depart="127.72" type="type1" route="0" departLane="random"/>

<vehicle id="193" depart="127.87" type="type1" route="2" departLane="random"/>

<vehicle id="194" depart="130.31" type="type0" route="2" departLane="random"/>

<vehicle id="195" depart="131.08" type="type4" route="1" departLane="random"/>

<vehicle id="196" depart="133.74" type="type3" route="0" departLane="random"/>

<vehicle id="197" depart="134.1" type="type0" route="0" departLane="random"/>

<vehicle id="198" depart="134.42" type="type1" route="2" departLane="random"/>

<vehicle id="199" depart="134.54" type="type4" route="1" departLane="random"/>

<vehicle id="200" depart="135.22" type="type4" route="1" departLane="random"/>

<vehicle id="201" depart="136.74" type="type3" route="0" departLane="random"/>

<vehicle id="202" depart="136.92" type="type0" route="0" departLane="random"/>

<vehicle id="203" depart="136.98" type="type3" route="1" departLane="random"/>

<vehicle id="204" depart="139.88" type="type2" route="0" departLane="random"/>

<vehicle id="205" depart="140.48" type="type2" route="0" departLane="random"/>

<vehicle id="206" depart="141.68" type="type2" route="0" departLane="random"/>

<vehicle id="207" depart="142.25" type="type3" route="0" departLane="random"/>

<vehicle id="208" depart="146.65" type="type3" route="1" departLane="random"/>

<vehicle id="209" depart="147.93" type="type3" route="0" departLane="random"/>

<vehicle id="210" depart="148.08" type="type2" route="0" departLane="random"/>

<vehicle id="211" depart="148.16" type="type2" route="1" departLane="random"/>

<vehicle id="212" depart="148.34" type="type2" route="0" departLane="random"/>

<vehicle id="213" depart="151.55" type="type3" route="0" departLane="random"/>

<vehicle id="214" depart="152.95" type="type3" route="1" departLane="random"/>

<vehicle id="215" depart="153.23" type="type2" route="2" departLane="random"/>

<vehicle id="216" depart="153.65" type="type2" route="0" departLane="random"/>

<vehicle id="217" depart="154.84" type="type2" route="2" departLane="random"/>

<vehicle id="218" depart="154.9" type="type3" route="0" departLane="random"/>

<vehicle id="219" depart="155.19" type="type3" route="0" departLane="random"/>

<vehicle id="220" depart="156.23" type="type3" route="1" departLane="random"/>

<vehicle id="221" depart="156.44" type="type1" route="0" departLane="random"/>

<vehicle id="222" depart="156.96" type="type3" route="1" departLane="random"/>

<vehicle id="223" depart="159.37" type="type2" route="0" departLane="random"/>

<vehicle id="224" depart="160.34" type="type3" route="0" departLane="random"/>

<vehicle id="225" depart="161.76" type="type4" route="0" departLane="random"/>

<vehicle id="226" depart="161.87" type="type1" route="1" departLane="random"/>

<vehicle id="227" depart="162.16" type="type2" route="0" departLane="random"/>

<vehicle id="228" depart="164.06" type="type0" route="0" departLane="random"/>

<vehicle id="229" depart="164.09" type="type2" route="0" departLane="random"/>

<vehicle id="230" depart="164.75" type="type3" route="0" departLane="random"/>

<vehicle id="231" depart="164.87" type="type2" route="1" departLane="random"/>

<vehicle id="232" depart="165.36" type="type4" route="0" departLane="random"/>

<vehicle id="233" depart="165.93" type="type4" route="0" departLane="random"/>

<vehicle id="234" depart="166.11" type="type3" route="1" departLane="random"/>

<vehicle id="235" depart="166.4" type="type3" route="0" departLane="random"/>

<vehicle id="236" depart="166.96" type="type3" route="1" departLane="random"/>

<vehicle id="237" depart="168.18" type="type3" route="0" departLane="random"/>

<vehicle id="238" depart="168.53" type="type0" route="0" departLane="random"/>

<vehicle id="239" depart="169.41" type="type3" route="0" departLane="random"/>

<vehicle id="240" depart="170.0" type="type2" route="0" departLane="random"/>

<vehicle id="241" depart="170.29" type="type2" route="1" departLane="random"/>

<vehicle id="242" depart="170.32" type="type3" route="0" departLane="random"/>

<vehicle id="243" depart="170.99" type="type1" route="1" departLane="random"/>

<vehicle id="244" depart="172.09" type="type3" route="0" departLane="random"/>

<vehicle id="245" depart="172.19" type="type2" route="0" departLane="random"/>

<vehicle id="246" depart="172.46" type="type3" route="1" departLane="random"/>

<vehicle id="247" depart="173.09" type="type0" route="0" departLane="random"/>

<vehicle id="248" depart="174.15" type="type3" route="0" departLane="random"/>

<vehicle id="249" depart="174.28" type="type3" route="2" departLane="random"/>

<vehicle id="250" depart="175.23" type="type2" route="1" departLane="random"/>

<vehicle id="251" depart="175.31" type="type3" route="0" departLane="random"/>

<vehicle id="252" depart="176.38" type="type3" route="0" departLane="random"/>

<vehicle id="253" depart="177.05" type="type1" route="1" departLane="random"/>

<vehicle id="254" depart="177.4" type="type3" route="0" departLane="random"/>

<vehicle id="255" depart="180.68" type="type0" route="0" departLane="random"/>

<vehicle id="256" depart="181.01" type="type0" route="0" departLane="random"/>

<vehicle id="257" depart="181.66" type="type4" route="0" departLane="random"/>

<vehicle id="258" depart="183.06" type="type0" route="0" departLane="random"/>

<vehicle id="259" depart="183.17" type="type2" route="0" departLane="random"/>

<vehicle id="260" depart="183.65" type="type2" route="0" departLane="random"/>

<vehicle id="261" depart="185.44" type="type4" route="0" departLane="random"/>

<vehicle id="262" depart="185.78" type="type2" route="0" departLane="random"/>

<vehicle id="263" depart="186.37" type="type3" route="0" departLane="random"/>

<vehicle id="264" depart="187.34" type="type3" route="0" departLane="random"/>

<vehicle id="265" depart="187.38" type="type3" route="0" departLane="random"/>

<vehicle id="266" depart="188.18" type="type4" route="0" departLane="random"/>

<vehicle id="267" depart="188.43" type="type2" route="0" departLane="random"/>

<vehicle id="268" depart="189.85" type="type2" route="0" departLane="random"/>

<vehicle id="269" depart="190.41" type="type2" route="1" departLane="random"/>

<vehicle id="270" depart="190.58" type="type2" route="0" departLane="random"/>

<vehicle id="271" depart="190.62" type="type3" route="0" departLane="random"/>

<vehicle id="272" depart="190.67" type="type3" route="0" departLane="random"/>

<vehicle id="273" depart="190.68" type="type1" route="2" departLane="random"/>

<vehicle id="274" depart="191.83" type="type0" route="1" departLane="random"/>

<vehicle id="275" depart="192.57" type="type4" route="0" departLane="random"/>

<vehicle id="276" depart="194.41" type="type3" route="1" departLane="random"/>

<vehicle id="277" depart="194.45" type="type3" route="0" departLane="random"/>

<vehicle id="278" depart="194.91" type="type2" route="2" departLane="random"/>

<vehicle id="279" depart="195.9" type="type0" route="0" departLane="random"/>

<vehicle id="280" depart="196.24" type="type1" route="0" departLane="random"/>

<vehicle id="281" depart="196.68" type="type3" route="2" departLane="random"/>

<vehicle id="282" depart="198.34" type="type0" route="0" departLane="random"/>

<vehicle id="283" depart="198.48" type="type0" route="0" departLane="random"/>

<vehicle id="284" depart="199.5" type="type2" route="1" departLane="random"/>

<vehicle id="285" depart="199.53" type="type3" route="0" departLane="random"/>

<vehicle id="286" depart="199.68" type="type4" route="1" departLane="random"/>

<vehicle id="287" depart="199.86" type="type3" route="0" departLane="random"/>

<vehicle id="288" depart="199.93" type="type3" route="0" departLane="random"/>

<vehicle id="289" depart="200.71" type="type1" route="0" departLane="random"/>

<vehicle id="290" depart="202.97" type="type3" route="0" departLane="random"/>

<vehicle id="291" depart="203.4" type="type0" route="1" departLane="random"/>

<vehicle id="292" depart="203.7" type="type3" route="0" departLane="random"/>

<vehicle id="293" depart="203.73" type="type3" route="2" departLane="random"/>

<vehicle id="294" depart="204.13" type="type1" route="0" departLane="random"/>

<vehicle id="295" depart="205.92" type="type2" route="0" departLane="random"/>

<vehicle id="296" depart="206.46" type="type0" route="0" departLane="random"/>

<vehicle id="297" depart="207.18" type="type0" route="0" departLane="random"/>

<vehicle id="298" depart="207.93" type="type2" route="1" departLane="random"/>

<vehicle id="299" depart="209.05" type="type2" route="1" departLane="random"/>

<vehicle id="300" depart="209.56" type="type2" route="0" departLane="random"/>

<vehicle id="301" depart="210.1" type="type2" route="0" departLane="random"/>

<vehicle id="302" depart="210.56" type="type4" route="0" departLane="random"/>

<vehicle id="303" depart="210.73" type="type3" route="1" departLane="random"/>

<vehicle id="304" depart="211.49" type="type3" route="0" departLane="random"/>

<vehicle id="305" depart="211.79" type="type2" route="0" departLane="random"/>

<vehicle id="306" depart="212.74" type="type1" route="0" departLane="random"/>

<vehicle id="307" depart="213.23" type="type1" route="0" departLane="random"/>

<vehicle id="308" depart="213.37" type="type4" route="0" departLane="random"/>

<vehicle id="309" depart="215.0" type="type2" route="0" departLane="random"/>

<vehicle id="310" depart="215.17" type="type3" route="0" departLane="random"/>

<vehicle id="311" depart="218.39" type="type4" route="0" departLane="random"/>

<vehicle id="312" depart="218.95" type="type4" route="0" departLane="random"/>

<vehicle id="313" depart="219.52" type="type3" route="0" departLane="random"/>

<vehicle id="314" depart="219.72" type="type2" route="0" departLane="random"/>

<vehicle id="315" depart="221.68" type="type3" route="0" departLane="random"/>

<vehicle id="316" depart="222.18" type="type2" route="0" departLane="random"/>

<vehicle id="317" depart="224.9" type="type2" route="0" departLane="random"/>

<vehicle id="318" depart="225.31" type="type1" route="0" departLane="random"/>

<vehicle id="319" depart="226.03" type="type2" route="0" departLane="random"/>

<vehicle id="320" depart="226.36" type="type3" route="0" departLane="random"/>

<vehicle id="321" depart="226.87" type="type2" route="0" departLane="random"/>

<vehicle id="322" depart="227.22" type="type2" route="0" departLane="random"/>

<vehicle id="323" depart="227.36" type="type2" route="0" departLane="random"/>

<vehicle id="324" depart="227.98" type="type2" route="0" departLane="random"/>

<vehicle id="325" depart="229.14" type="type2" route="0" departLane="random"/>

<vehicle id="326" depart="229.4" type="type1" route="0" departLane="random"/>

<vehicle id="327" depart="230.08" type="type2" route="2" departLane="random"/>

<vehicle id="328" depart="230.15" type="type2" route="1" departLane="random"/>

<vehicle id="329" depart="230.38" type="type3" route="0" departLane="random"/>

<vehicle id="330" depart="231.29" type="type3" route="0" departLane="random"/>

<vehicle id="331" depart="231.36" type="type2" route="2" departLane="random"/>

<vehicle id="332" depart="231.54" type="type3" route="0" departLane="random"/>

<vehicle id="333" depart="231.96" type="type1" route="2" departLane="random"/>

<vehicle id="334" depart="233.26" type="type1" route="1" departLane="random"/>

<vehicle id="335" depart="233.38" type="type2" route="0" departLane="random"/>

<vehicle id="336" depart="234.27" type="type2" route="1" departLane="random"/>

<vehicle id="337" depart="234.41" type="type2" route="0" departLane="random"/>

<vehicle id="338" depart="234.61" type="type2" route="1" departLane="random"/>

<vehicle id="339" depart="235.82" type="type2" route="0" departLane="random"/>

<vehicle id="340" depart="235.97" type="type2" route="1" departLane="random"/>

<vehicle id="341" depart="238.72" type="type2" route="0" departLane="random"/>

<vehicle id="342" depart="238.97" type="type3" route="2" departLane="random"/>

<vehicle id="343" depart="241.06" type="type3" route="0" departLane="random"/>

<vehicle id="344" depart="243.98" type="type3" route="0" departLane="random"/>

<vehicle id="345" depart="244.52" type="type3" route="1" departLane="random"/>

<vehicle id="346" depart="244.91" type="type4" route="0" departLane="random"/>

<vehicle id="347" depart="245.8" type="type2" route="0" departLane="random"/>

<vehicle id="348" depart="246.28" type="type3" route="0" departLane="random"/>

<vehicle id="349" depart="246.72" type="type3" route="1" departLane="random"/>

<vehicle id="350" depart="246.76" type="type4" route="0" departLane="random"/>

<vehicle id="351" depart="246.9" type="type3" route="0" departLane="random"/>

<vehicle id="352" depart="247.04" type="type3" route="1" departLane="random"/>

<vehicle id="353" depart="247.08" type="type3" route="1" departLane="random"/>

<vehicle id="354" depart="247.59" type="type3" route="1" departLane="random"/>

<vehicle id="355" depart="248.0" type="type0" route="0" departLane="random"/>

<vehicle id="356" depart="249.34" type="type2" route="0" departLane="random"/>

<vehicle id="357" depart="249.34" type="type3" route="0" departLane="random"/>

<vehicle id="358" depart="250.25" type="type3" route="0" departLane="random"/>

<vehicle id="359" depart="250.59" type="type3" route="1" departLane="random"/>

<vehicle id="360" depart="250.62" type="type2" route="2" departLane="random"/>

<vehicle id="361" depart="250.97" type="type2" route="0" departLane="random"/>

<vehicle id="362" depart="250.99" type="type2" route="0" departLane="random"/>

<vehicle id="363" depart="251.34" type="type2" route="0" departLane="random"/>

<vehicle id="364" depart="253.02" type="type2" route="0" departLane="random"/>

<vehicle id="365" depart="253.03" type="type3" route="1" departLane="random"/>

<vehicle id="366" depart="253.13" type="type2" route="0" departLane="random"/>

<vehicle id="367" depart="256.07" type="type2" route="2" departLane="random"/>

<vehicle id="368" depart="256.6" type="type2" route="1" departLane="random"/>
